data/interim/case69.raw
0, 10, 33, 0, 0, 60  / 11-May-2026 16:16:23 - MATPOWER 7.0


     1, 'BUS 1       ',     12.66, 3,    1,    1, 1,           1,           0,    1,    1,    1,    1
     2, 'BUS 2       ',     12.66, 1,    1,    1, 1,           1,           0,  1.1,  0.9,  1.1,  0.9
     3, 'BUS 3       ',     12.66, 1,    1,    1, 1,           1,           0,  1.1,  0.9,  1.1,  0.9
     4, 'BUS 4       ',     12.66, 1,    1,    1, 1,           1,           0,  1.1,  0.9,  1.1,  0.9
     5, 'BUS 5       ',     12.66, 1,    1,    1, 1,           1,           0,  1.1,  0.9,  1.1,  0.9
     6, 'BUS 6       ',     12.66, 1,    1,    1, 1,           1,           0,  1.1,  0.9,  1.1,  0.9
     7, 'BUS 7       ',     12.66, 1,    1,    1, 1,           1,           0,  1.1,  0.9,  1.1,  0.9
     8, 'BUS 8       ',     12.66, 1,    1,    1, 1,           1,           0,  1.1,  0.9,  1.1,  0.9
     9, 'BUS 9       ',     12.66, 1,    1,    1, 1,           1,           0,  1.1,  0.9,  1.1,  0.9
    10, 'BUS 10      ',     12.66, 1,    1,    1, 1,           1,           0,  1.1,  0.9,  1.1,  0.9
    11, 'BUS 11      ',     12.66, 1,    1,    1, 1,           1,           0,  1.1,  0.9,  1.1,  0.9
    12, 'BUS 12      ',     12.66, 1,    1,    1, 1,           1,           0,  1.1,  0.9,  1.1,  0.9
    13, 'BUS 13      ',     12.66, 1,    1,    1, 1,           1,           0,  1.1,  0.9,  1.1,  0.9
    14, 'BUS 14      ',     12.66, 1,    1,    1, 1,           1,           0,  1.1,  0.9,  1.1,  0.9
    15, 'BUS 15      ',     12.66, 1,    1,    1, 1,           1,           0,  1.1,  0.9,  1.1,  0.9
    16, 'BUS 16      ',     12.66, 1,    1,    1, 1,           1,           0,  1.1,  0.9,  1.1,  0.9
    17, 'BUS 17      ',     12.66, 1,    1,    1, 1,           1,           0,  1.1,  0.9,  1.1,  0.9
    18, 'BUS 18      ',     12.66, 1,    1,    1, 1,           1,           0,  1.1,  0.9,  1.1,  0.9
    19, 'BUS 19      ',     12.66, 1,    1,    1, 1,           1,           0,  1.1,  0.9,  1.1,  0.9
    20, 'BUS 20      ',     12.66, 1,    1,    1, 1,           1,           0,  1.1,  0.9,  1.1,  0.9
    21, 'BUS 21      ',     12.66, 1,    1,    1, 1,           1,           0,  1.1,  0.9,  1.1,  0.9
    22, 'BUS 22      ',     12.66, 1,    1,    1, 1,           1,           0,  1.1,  0.9,  1.1,  0.9
    23, 'BUS 23      ',     12.66, 1,    1,    1, 1,           1,           0,  1.1,  0.9,  1.1,  0.9
    24, 'BUS 24      ',     12.66, 1,    1,    1, 1,           1,           0,  1.1,  0.9,  1.1,  0.9
    25, 'BUS 25      ',     12.66, 1,    1,    1, 1,           1,           0,  1.1,  0.9,  1.1,  0.9
    26, 'BUS 26      ',     12.66, 1,    1,    1, 1,           1,           0,  1.1,  0.9,  1.1,  0.9
    27, 'BUS 27      ',     12.66, 1,    1,    1, 1,           1,           0,  1.1,  0.9,  1.1,  0.9
    28, 'BUS 28      ',     12.66, 1,    1,    1, 1,           1,           0,  1.1,  0.9,  1.1,  0.9
    29, 'BUS 29      ',     12.66, 1,    1,    1, 1,           1,           0,  1.1,  0.9,  1.1,  0.9
    30, 'BUS 30      ',     12.66, 1,    1,    1, 1,           1,           0,  1.1,  0.9,  1.1,  0.9
    31, 'BUS 31      ',     12.66, 1,    1,    1, 1,           1,           0,  1.1,  0.9,  1.1,  0.9
    32, 'BUS 32      ',     12.66, 1,    1,    1, 1,           1,           0,  1.1,  0.9,  1.1,  0.9
    33, 'BUS 33      ',     12.66, 1,    1,    1, 1,           1,           0,  1.1,  0.9,  1.1,  0.9
    34, 'BUS 34      ',     12.66, 1,    1,    1, 1,           1,           0,  1.1,  0.9,  1.1,  0.9
    35, 'BUS 35      ',     12.66, 1,    1,    1, 1,           1,           0,  1.1,  0.9,  1.1,  0.9
    36, 'BUS 36      ',     12.66, 1,    1,    1, 1,           1,           0,  1.1,  0.9,  1.1,  0.9
    37, 'BUS 37      ',     12.66, 1,    1,    1, 1,           1,           0,  1.1,  0.9,  1.1,  0.9
    38, 'BUS 38      ',     12.66, 1,    1,    1, 1,           1,           0,  1.1,  0.9,  1.1,  0.9
    39, 'BUS 39      ',     12.66, 1,    1,    1, 1,           1,           0,  1.1,  0.9,  1.1,  0.9
    40, 'BUS 40      ',     12.66, 1,    1,    1, 1,           1,           0,  1.1,  0.9,  1.1,  0.9
    41, 'BUS 41      ',     12.66, 1,    1,    1, 1,           1,           0,  1.1,  0.9,  1.1,  0.9
    42, 'BUS 42      ',     12.66, 1,    1,    1, 1,           1,           0,  1.1,  0.9,  1.1,  0.9
    43, 'BUS 43      ',     12.66, 1,    1,    1, 1,           1,           0,  1.1,  0.9,  1.1,  0.9
    44, 'BUS 44      ',     12.66, 1,    1,    1, 1,           1,           0,  1.1,  0.9,  1.1,  0.9
    45, 'BUS 45      ',     12.66, 1,    1,    1, 1,           1,           0,  1.1,  0.9,  1.1,  0.9
    46, 'BUS 46      ',     12.66, 1,    1,    1, 1,           1,           0,  1.1,  0.9,  1.1,  0.9
    47, 'BUS 47      ',     12.66, 1,    1,    1, 1,           1,           0,  1.1,  0.9,  1.1,  0.9
    48, 'BUS 48      ',     12.66, 1,    1,    1, 1,           1,           0,  1.1,  0.9,  1.1,  0.9
    49, 'BUS 49      ',     12.66, 1,    1,    1, 1,           1,           0,  1.1,  0.9,  1.1,  0.9
    50, 'BUS 50      ',     12.66, 1,    1,    1, 1,           1,           0,  1.1,  0.9,  1.1,  0.9
    51, 'BUS 51      ',     12.66, 1,    1,    1, 1,           1,           0,  1.1,  0.9,  1.1,  0.9
    52, 'BUS 52      ',     12.66, 1,    1,    1, 1,           1,           0,  1.1,  0.9,  1.1,  0.9
    53, 'BUS 53      ',     12.66, 1,    1,    1, 1,           1,           0,  1.1,  0.9,  1.1,  0.9
    54, 'BUS 54      ',     12.66, 1,    1,    1, 1,           1,           0,  1.1,  0.9,  1.1,  0.9
    55, 'BUS 55      ',     12.66, 1,    1,    1, 1,           1,           0,  1.1,  0.9,  1.1,  0.9
    56, 'BUS 56      ',     12.66, 1,    1,    1, 1,           1,           0,  1.1,  0.9,  1.1,  0.9
    57, 'BUS 57      ',     12.66, 1,    1,    1, 1,           1,           0,  1.1,  0.9,  1.1,  0.9
    58, 'BUS 58      ',     12.66, 1,    1,    1, 1,           1,           0,  1.1,  0.9,  1.1,  0.9
    59, 'BUS 59      ',     12.66, 1,    1,    1, 1,           1,           0,  1.1,  0.9,  1.1,  0.9
    60, 'BUS 60      ',     12.66, 1,    1,    1, 1,           1,           0,  1.1,  0.9,  1.1,  0.9
    61, 'BUS 61      ',     12.66, 1,    1,    1, 1,           1,           0,  1.1,  0.9,  1.1,  0.9
    62, 'BUS 62      ',     12.66, 1,    1,    1, 1,           1,           0,  1.1,  0.9,  1.1,  0.9
    63, 'BUS 63      ',     12.66, 1,    1,    1, 1,           1,           0,  1.1,  0.9,  1.1,  0.9
    64, 'BUS 64      ',     12.66, 1,    1,    1, 1,           1,           0,  1.1,  0.9,  1.1,  0.9
    65, 'BUS 65      ',     12.66, 1,    1,    1, 1,           1,           0,  1.1,  0.9,  1.1,  0.9
    66, 'BUS 66      ',     12.66, 1,    1,    1, 1,           1,           0,  1.1,  0.9,  1.1,  0.9
    67, 'BUS 67      ',     12.66, 1,    1,    1, 1,           1,           0,  1.1,  0.9,  1.1,  0.9
    68, 'BUS 68      ',     12.66, 1,    1,    1, 1,           1,           0,  1.1,  0.9,  1.1,  0.9
    69, 'BUS 69      ',     12.66, 1,    1,    1, 1,           1,           0,  1.1,  0.9,  1.1,  0.9
0 / END OF BUS DATA, BEGIN LOAD DATA
     6,  1, 1,    1,    1,    0.0026,    0.0022, 0, 0, 0, 0, 1, 1, 0
     7,  1, 1,    1,    1,    0.0404,      0.03, 0, 0, 0, 0, 1, 1, 0
     8,  1, 1,    1,    1,     0.075,     0.054, 0, 0, 0, 0, 1, 1, 0
     9,  1, 1,    1,    1,      0.03,     0.022, 0, 0, 0, 0, 1, 1, 0
    10,  1, 1,    1,    1,     0.028,     0.019, 0, 0, 0, 0, 1, 1, 0
    11,  1, 1,    1,    1,     0.145,     0.104, 0, 0, 0, 0, 1, 1, 0
    12,  1, 1,    1,    1,     0.145,     0.104, 0, 0, 0, 0, 1, 1, 0
    13,  1, 1,    1,    1,     0.008,    0.0055, 0, 0, 0, 0, 1, 1, 0
    14,  1, 1,    1,    1,     0.008,    0.0055, 0, 0, 0, 0, 1, 1, 0
    16,  1, 1,    1,    1,    0.0455,      0.03, 0, 0, 0, 0, 1, 1, 0
    17,  1, 1,    1,    1,      0.06,     0.035, 0, 0, 0, 0, 1, 1, 0
    18,  1, 1,    1,    1,      0.06,     0.035, 0, 0, 0, 0, 1, 1, 0
    20,  1, 1,    1,    1,     0.001,    0.0006, 0, 0, 0, 0, 1, 1, 0
    21,  1, 1,    1,    1,     0.114,     0.081, 0, 0, 0, 0, 1, 1, 0
    22,  1, 1,    1,    1,    0.0053,    0.0035, 0, 0, 0, 0, 1, 1, 0
    24,  1, 1,    1,    1,     0.028,      0.02, 0, 0, 0, 0, 1, 1, 0
    26,  1, 1,    1,    1,     0.014,      0.01, 0, 0, 0, 0, 1, 1, 0
    27,  1, 1,    1,    1,     0.014,      0.01, 0, 0, 0, 0, 1, 1, 0
    28,  1, 1,    1,    1,     0.026,    0.0186, 0, 0, 0, 0, 1, 1, 0
    29,  1, 1,    1,    1,     0.026,    0.0186, 0, 0, 0, 0, 1, 1, 0
    33,  1, 1,    1,    1,     0.014,      0.01, 0, 0, 0, 0, 1, 1, 0
    34,  1, 1,    1,    1,    0.0195,     0.014, 0, 0, 0, 0, 1, 1, 0
    35,  1, 1,    1,    1,     0.006,     0.004, 0, 0, 0, 0, 1, 1, 0
    36,  1, 1,    1,    1,     0.026,    0.0186, 0, 0, 0, 0, 1, 1, 0
    37,  1, 1,    1,    1,     0.026,    0.0186, 0, 0, 0, 0, 1, 1, 0
    39,  1, 1,    1,    1,     0.024,     0.017, 0, 0, 0, 0, 1, 1, 0
    40,  1, 1,    1,    1,     0.024,     0.017, 0, 0, 0, 0, 1, 1, 0
    41,  1, 1,    1,    1,    0.0012,     0.001, 0, 0, 0, 0, 1, 1, 0
    43,  1, 1,    1,    1,     0.006,    0.0043, 0, 0, 0, 0, 1, 1, 0
    45,  1, 1,    1,    1,    0.0392,    0.0263, 0, 0, 0, 0, 1, 1, 0
    46,  1, 1,    1,    1,    0.0392,    0.0263, 0, 0, 0, 0, 1, 1, 0
    48,  1, 1,    1,    1,     0.079,    0.0564, 0, 0, 0, 0, 1, 1, 0
    49,  1, 1,    1,    1,    0.3847,    0.2745, 0, 0, 0, 0, 1, 1, 0
    50,  1, 1,    1,    1,    0.3847,    0.2745, 0, 0, 0, 0, 1, 1, 0
    51,  1, 1,    1,    1,    0.0405,    0.0283, 0, 0, 0, 0, 1, 1, 0
    52,  1, 1,    1,    1,    0.0036,    0.0027, 0, 0, 0, 0, 1, 1, 0
    53,  1, 1,    1,    1,    0.0043,    0.0035, 0, 0, 0, 0, 1, 1, 0
    54,  1, 1,    1,    1,    0.0264,     0.019, 0, 0, 0, 0, 1, 1, 0
    55,  1, 1,    1,    1,     0.024,    0.0172, 0, 0, 0, 0, 1, 1, 0
    59,  1, 1,    1,    1,       0.1,     0.072, 0, 0, 0, 0, 1, 1, 0
    61,  1, 1,    1,    1,     1.244,     0.888, 0, 0, 0, 0, 1, 1, 0
    62,  1, 1,    1,    1,     0.032,     0.023, 0, 0, 0, 0, 1, 1, 0
    64,  1, 1,    1,    1,     0.227,     0.162, 0, 0, 0, 0, 1, 1, 0
    65,  1, 1,    1,    1,     0.059,     0.042, 0, 0, 0, 0, 1, 1, 0
    66,  1, 1,    1,    1,     0.018,     0.013, 0, 0, 0, 0, 1, 1, 0
    67,  1, 1,    1,    1,     0.018,     0.013, 0, 0, 0, 0, 1, 1, 0
    68,  1, 1,    1,    1,     0.028,      0.02, 0, 0, 0, 0, 1, 1, 0
    69,  1, 1,    1,    1,     0.028,      0.02, 0, 0, 0, 0, 1, 1, 0
0 / END OF LOAD DATA, BEGIN FIXED SHUNT DATA
0 / END OF FIXED SHUNT DATA, BEGIN GENERATOR DATA
     1,  1,         0,         0,        10,       -10,        1, 0,     100, 0, 1, 0, 0, 1, 1, 100,        10,         0, 1, 1, 0, 1, 0, 1, 0, 1, 0, 1
0 / END OF GENERATOR DATA, BEGIN BRANCH DATA
     1,      2, 1, 3.119626e-05, 7.487103e-05,        0,       0,       0,       0, 0, 0, 0, 0, 1, 1, 0, 1, 1, 0, 1, 0, 1, 0, 1
     2,      3, 1, 3.119626e-05, 7.487103e-05,        0,       0,       0,       0, 0, 0, 0, 0, 1, 1, 0, 1, 1, 0, 1, 0, 1, 0, 1
     3,      4, 1, 9.358879e-05, 0.0002246131,        0,       0,       0,       0, 0, 0, 0, 0, 1, 1, 0, 1, 1, 0, 1, 0, 1, 0, 1
     4,      5, 1, 0.001566052, 0.00183434,        0,       0,       0,       0, 0, 0, 0, 0, 1, 1, 0, 1, 1, 0, 1, 0, 1, 0, 1
     5,      6, 1, 0.02283567, 0.01162997,        0,       0,       0,       0, 0, 0, 0, 0, 1, 1, 0, 1, 1, 0, 1, 0, 1, 0, 1
     6,      7, 1, 0.02377155, 0.01211039,        0,       0,       0,       0, 0, 0, 0, 0, 1, 1, 0, 1, 1, 0, 1, 0, 1, 0, 1
     7,      8, 1, 0.005752591, 0.002932449,        0,       0,       0,       0, 0, 0, 0, 0, 1, 1, 0, 1, 1, 0, 1, 0, 1, 0, 1
     8,      9, 1, 0.003075952, 0.001566052,        0,       0,       0,       0, 0, 0, 0, 0, 1, 1, 0, 1, 1, 0, 1, 0, 1, 0, 1
     9,     10, 1, 0.05109948, 0.01688966,        0,       0,       0,       0, 0, 0, 0, 0, 1, 1, 0, 1, 1, 0, 1, 0, 1, 0, 1
    10,     11, 1, 0.01167988, 0.003862098,        0,       0,       0,       0, 0, 0, 0, 0, 1, 1, 0, 1, 1, 0, 1, 0, 1, 0, 1
    11,     12, 1, 0.04438605, 0.01466848,        0,       0,       0,       0, 0, 0, 0, 0, 1, 1, 0, 1, 1, 0, 1, 0, 1, 0, 1
    12,     13, 1, 0.0642643, 0.02121346,        0,       0,       0,       0, 0, 0, 0, 0, 1, 1, 0, 1, 1, 0, 1, 0, 1, 0, 1
    13,     14, 1, 0.0651378, 0.02121346,        0,       0,       0,       0, 0, 0, 0, 0, 1, 1, 0, 1, 1, 0, 1, 0, 1, 0, 1
    14,     15, 1, 0.0660113, 0.02181243,        0,       0,       0,       0, 0, 0, 0, 0, 1, 1, 0, 1, 1, 0, 1, 0, 1, 0, 1
    15,     16, 1, 0.01226637, 0.004055514,        0,       0,       0,       0, 0, 0, 0, 0, 1, 1, 0, 1, 1, 0, 1, 0, 1, 0, 1
    16,     17, 1, 0.02335976, 0.007724195,        0,       0,       0,       0, 0, 0, 0, 0, 1, 1, 0, 1, 1, 0, 1, 0, 1, 0, 1
    17,     18, 1, 0.0002932449, 9.982805e-05,        0,       0,       0,       0, 0, 0, 0, 0, 1, 1, 0, 1, 1, 0, 1, 0, 1, 0, 1
    18,     19, 1, 0.02043979, 0.006757111,        0,       0,       0,       0, 0, 0, 0, 0, 1, 1, 0, 1, 1, 0, 1, 0, 1, 0, 1
    19,     20, 1, 0.01313987, 0.004305084,        0,       0,       0,       0, 0, 0, 0, 0, 1, 1, 0, 1, 1, 0, 1, 0, 1, 0, 1
    20,     21, 1, 0.02131329, 0.007044117,        0,       0,       0,       0, 0, 0, 0, 0, 1, 1, 0, 1, 1, 0, 1, 0, 1, 0, 1
    21,     22, 1, 0.0008734954, 0.0002870056,        0,       0,       0,       0, 0, 0, 0, 0, 1, 1, 0, 1, 1, 0, 1, 0, 1, 0, 1
    22,     23, 1, 0.009926651, 0.003281847,        0,       0,       0,       0, 0, 0, 0, 0, 1, 1, 0, 1, 1, 0, 1, 0, 1, 0, 1
    23,     24, 1, 0.02160653, 0.007143945,        0,       0,       0,       0, 0, 0, 0, 0, 1, 1, 0, 1, 1, 0, 1, 0, 1, 0, 1
    24,     25, 1, 0.04671953, 0.01544215,        0,       0,       0,       0, 0, 0, 0, 0, 1, 1, 0, 1, 1, 0, 1, 0, 1, 0, 1
    25,     26, 1, 0.01927305, 0.006370277,        0,       0,       0,       0, 0, 0, 0, 0, 1, 1, 0, 1, 1, 0, 1, 0, 1, 0, 1
    26,     27, 1, 0.01080639, 0.003568853,        0,       0,       0,       0, 0, 0, 0, 0, 1, 1, 0, 1, 1, 0, 1, 0, 1, 0, 1
     3,     28, 1, 0.0002745271, 0.0006738393,        0,       0,       0,       0, 0, 0, 0, 0, 1, 1, 0, 1, 1, 0, 1, 0, 1, 0, 1
    28,     29, 1, 0.003993122, 0.009764431,        0,       0,       0,       0, 0, 0, 0, 0, 1, 1, 0, 1, 1, 0, 1, 0, 1, 0, 1
    29,     30, 1, 0.02481975, 0.008204618,        0,       0,       0,       0, 0, 0, 0, 0, 1, 1, 0, 1, 1, 0, 1, 0, 1, 0, 1
    30,     31, 1, 0.004379956, 0.001447507,        0,       0,       0,       0, 0, 0, 0, 0, 1, 1, 0, 1, 1, 0, 1, 0, 1, 0, 1
    31,     32, 1, 0.02189978, 0.007237533,        0,       0,       0,       0, 0, 0, 0, 0, 1, 1, 0, 1, 1, 0, 1, 0, 1, 0, 1
    32,     33, 1, 0.05234733, 0.01756974,        0,       0,       0,       0, 0, 0, 0, 0, 1, 1, 0, 1, 1, 0, 1, 0, 1, 0, 1
    33,     34, 1, 0.1065664, 0.03522682,        0,       0,       0,       0, 0, 0, 0, 0, 1, 1, 0, 1, 1, 0, 1, 0, 1, 0, 1
    34,     35, 1, 0.09196659, 0.03040388,        0,       0,       0,       0, 0, 0, 0, 0, 1, 1, 0, 1, 1, 0, 1, 0, 1, 0, 1
     3,     36, 1, 0.0002745271, 0.0006738393,        0,       0,       0,       0, 0, 0, 0, 0, 1, 1, 0, 1, 1, 0, 1, 0, 1, 0, 1
    36,     37, 1, 0.003993122, 0.009764431,        0,       0,       0,       0, 0, 0, 0, 0, 1, 1, 0, 1, 1, 0, 1, 0, 1, 0, 1
    37,     38, 1, 0.006569933, 0.007674281,        0,       0,       0,       0, 0, 0, 0, 0, 1, 1, 0, 1, 1, 0, 1, 0, 1, 0, 1
    38,     39, 1, 0.001896733, 0.002214935,        0,       0,       0,       0, 0, 0, 0, 0, 1, 1, 0, 1, 1, 0, 1, 0, 1, 0, 1
    39,     40, 1, 0.0001123066, 0.0001310243,        0,       0,       0,       0, 0, 0, 0, 0, 1, 1, 0, 1, 1, 0, 1, 0, 1, 0, 1
    40,     41, 1, 0.04544048, 0.0530898,        0,       0,       0,       0, 0, 0, 0, 0, 1, 1, 0, 1, 1, 0, 1, 0, 1, 0, 1
    41,     42, 1, 0.01934168, 0.02260481,        0,       0,       0,       0, 0, 0, 0, 0, 1, 1, 0, 1, 1, 0, 1, 0, 1, 0, 1
    42,     43, 1, 0.002558094, 0.002982363,        0,       0,       0,       0, 0, 0, 0, 0, 1, 1, 0, 1, 1, 0, 1, 0, 1, 0, 1
    43,     44, 1, 0.0005740113, 0.0007237533,        0,       0,       0,       0, 0, 0, 0, 0, 1, 1, 0, 1, 1, 0, 1, 0, 1, 0, 1
    44,     45, 1, 0.006794546, 0.008566494,        0,       0,       0,       0, 0, 0, 0, 0, 1, 1, 0, 1, 1, 0, 1, 0, 1, 0, 1
    45,     46, 1, 5.615328e-05, 7.487103e-05,        0,       0,       0,       0, 0, 0, 0, 0, 1, 1, 0, 1, 1, 0, 1, 0, 1, 0, 1
     4,     47, 1, 0.0002121346, 0.0005240972,        0,       0,       0,       0, 0, 0, 0, 0, 1, 1, 0, 1, 1, 0, 1, 0, 1, 0, 1
    47,     48, 1, 0.005309604, 0.01299636,        0,       0,       0,       0, 0, 0, 0, 0, 1, 1, 0, 1, 1, 0, 1, 0, 1, 0, 1
    48,     49, 1, 0.01808135, 0.04424254,        0,       0,       0,       0, 0, 0, 0, 0, 1, 1, 0, 1, 1, 0, 1, 0, 1, 0, 1
    49,     50, 1, 0.005128666, 0.01254714,        0,       0,       0,       0, 0, 0, 0, 0, 1, 1, 0, 1, 1, 0, 1, 0, 1, 0, 1
     8,     51, 1, 0.005790027, 0.002951167,        0,       0,       0,       0, 0, 0, 0, 0, 1, 1, 0, 1, 1, 0, 1, 0, 1, 0, 1
    51,     52, 1, 0.02070808, 0.007112748,        0,       0,       0,       0, 0, 0, 0, 0, 1, 1, 0, 1, 1, 0, 1, 0, 1, 0, 1
     9,     53, 1, 0.0108563, 0.005527978,        0,       0,       0,       0, 0, 0, 0, 0, 1, 1, 0, 1, 1, 0, 1, 0, 1, 0, 1
    53,     54, 1, 0.01266568, 0.006451387,        0,       0,       0,       0, 0, 0, 0, 0, 1, 1, 0, 1, 1, 0, 1, 0, 1, 0, 1
    54,     55, 1, 0.01773196, 0.009028199,        0,       0,       0,       0, 0, 0, 0, 0, 1, 1, 0, 1, 1, 0, 1, 0, 1, 0, 1
    55,     56, 1, 0.01755102, 0.008940849,        0,       0,       0,       0, 0, 0, 0, 0, 1, 1, 0, 1, 1, 0, 1, 0, 1, 0, 1
    56,     57, 1, 0.09920412, 0.03329889,        0,       0,       0,       0, 0, 0, 0, 0, 1, 1, 0, 1, 1, 0, 1, 0, 1, 0, 1
    57,     58, 1, 0.04889702, 0.01640924,        0,       0,       0,       0, 0, 0, 0, 0, 1, 1, 0, 1, 1, 0, 1, 0, 1, 0, 1
    58,     59, 1, 0.01897981, 0.006276688,        0,       0,       0,       0, 0, 0, 0, 0, 1, 1, 0, 1, 1, 0, 1, 0, 1, 0, 1
    59,     60, 1, 0.02408976, 0.007312404,        0,       0,       0,       0, 0, 0, 0, 0, 1, 1, 0, 1, 1, 0, 1, 0, 1, 0, 1
    60,     61, 1, 0.03166421, 0.01612847,        0,       0,       0,       0, 0, 0, 0, 0, 1, 1, 0, 1, 1, 0, 1, 0, 1, 0, 1
    61,     62, 1, 0.006077032, 0.003094669,        0,       0,       0,       0, 0, 0, 0, 0, 1, 1, 0, 1, 1, 0, 1, 0, 1, 0, 1
    62,     63, 1, 0.009046917, 0.004604569,        0,       0,       0,       0, 0, 0, 0, 0, 1, 1, 0, 1, 1, 0, 1, 0, 1, 0, 1
    63,     64, 1, 0.04432989, 0.02257986,        0,       0,       0,       0, 0, 0, 0, 0, 1, 1, 0, 1, 1, 0, 1, 0, 1, 0, 1
    64,     65, 1, 0.06495062, 0.03308052,        0,       0,       0,       0, 0, 0, 0, 0, 1, 1, 0, 1, 1, 0, 1, 0, 1, 0, 1
    11,     66, 1, 0.01255338, 0.003812184,        0,       0,       0,       0, 0, 0, 0, 0, 1, 1, 0, 1, 1, 0, 1, 0, 1, 0, 1
    66,     67, 1, 0.0002932449, 8.734954e-05,        0,       0,       0,       0, 0, 0, 0, 0, 1, 1, 0, 1, 1, 0, 1, 0, 1, 0, 1
    12,     68, 1, 0.04613304, 0.01524873,        0,       0,       0,       0, 0, 0, 0, 0, 1, 1, 0, 1, 1, 0, 1, 0, 1, 0, 1
    68,     69, 1, 0.0002932449, 9.982805e-05,        0,       0,       0,       0, 0, 0, 0, 0, 1, 1, 0, 1, 1, 0, 1, 0, 1, 0, 1
0 / END OF BRANCH DATA, BEGIN TRANSFORMER DATA
0 / END OF TRANSFORMER DATA, BEGIN AREA DATA
0 / END OF AREA DATA, BEGIN TWO-TERMINAL DC DATA
0 / END OF TWO-TERMINAL DC DATA, BEGIN VOLTAGE SOURCE CONVERTER DATA
0 / END OF VOLTAGE SOURCE CONVERTER DATA, BEGIN IMPEDANCE CORRECTION DATA
0 / END OF IMPEDANCE CORRECTION DATA, BEGIN MULTI-TERMINAL DC DATA
0 / END OF MULTI-TERMINAL DC DATA, BEGIN MULTI-SECTION LINE DATA
0 / END OF MULTI-SECTION LINE DATA, BEGIN ZONE DATA
0 / END OF ZONE DATA, BEGIN INTER-AREA TRANSFER DATA
0 / END OF INTER-AREA TRANSFER DATA, BEGIN OWNER DATA
0 / END OF OWNER DATA, BEGIN FACTS CONTROL DEVICE DATA
0 / END OF FACTS CONTROL DEVICE DATA, BEGIN SWITCHED SHUNT DATA
0 / END OF SWITCHED SHUNT DATA, BEGIN GNE DEVICE DATA
0 / END OF GNE DEVICE DATA, BEGIN INDUCTION MACHINE DATA
0 / END OF INDUCTION MACHINE DATA
Q
